; Filename: networks/Richmond.txt
; WNTR: 0.2.2
; Created: 2020-04-16 17:16:34
[TITLE]
Richmond Standard Water Supply System. Updated 22 December 2008
For more information on this network, see the file Richmond_readme.txt distributed
with this network, or email Kobus van Zyl at kobusvanzyl@mail.com

[JUNCTIONS]
;ID                      Elevation       Demand Pattern                 
 1                                 69           0.001 Fac_11                     ;
 2                                183               0 Fac_11                     ;
 3                             183.82               0 Fac_11                     ;
 4                                183               0 Fac_11                     ;
 5                                183               0 Fac_11                     ;
 6                                186               0 Fac_11                     ;
 7                                183               0 Fac_11                     ;
 8                                183               0 Fac_11                     ;
 9                              68.85           0.178 Fac_11                     ;
 10                            166.42               0 Fac_11                     ;
 11                            166.48               0 Fac_11                     ;
 12                               154               0 Fac_11                     ;
 13                               154               0 Fac_11                     ;
 14                               146               0 Fac_11                     ;
 15                            136.51            0.03 Fac_1616                   ;
 16                               126               0 Fac_11                     ;
 17                               126               0 Fac_11                     ;
 18                               126               0 Fac_11                     ;
 19                               132               0 Fac_11                     ;
 20                                64           0.326 Fac_11                     ;
 21                               132            0.02 Fac_1616                   ;
 22                             132.2            0.02 Fac_11                     ;
 23                               138            0.03 Fac_1616                   ;
 24                               139            0.05 Fac_1616                   ;
 25                               137            0.03 Fac_1616                   ;
 26                               137            0.04 Fac_1616                   ;
 27                               142            0.09 Fac_1616                   ;
 28                               139            0.11 Fac_1616                   ;
 29                               137            0.04 Fac_1616                   ;
 30                               140            0.03 Fac_1616                   ;
 31                                64           0.152 Fac_11                     ;
 32                               141            0.02 Fac_11                     ;
 33                            141.67            0.01 Fac_1616                   ;
 34                               141            0.02 Fac_1616                   ;
 35                               142            0.01 Fac_1616                   ;
 36                               144            0.01 Fac_1616                   ;
 37                               145            0.03 Fac_1616                   ;
 38                               145               0 Fac_11                     ;
 39                               144            0.02 Fac_1616                   ;
 40                               145            0.01 Fac_1616                   ;
 41                               144            0.01 Fac_1616                   ;
 42                                64           0.011 Fac_11                     ;
 43                               145               0 Fac_11                     ;
 44                               122               0 Fac_11                     ;
 45                               110            0.01 Fac_1616                   ;
 46                               108               0 Fac_11                     ;
 47                               107               0 Fac_11                     ;
 48                               107            0.01 Fac_11                     ;
 49                               108               0 Fac_11                     ;
 50                               107               0 Fac_11                     ;
 51                               107            0.01 Fac_1616                   ;
 52                            105.95               0 Fac_11                     ;
 53                                64           0.005 Fac_11                     ;
 54                               107               0 Fac_11                     ;
 55                               109               0 Fac_11                     ;
 56                                89               0 Fac_11                     ;
 57                                86            0.01 Fac_1616                   ;
 58                               146            0.01 Fac_1616                   ;
 59                               146               0 Fac_11                     ;
 60                               150            0.04 Fac_1616                   ;
 61                               151            0.01 Fac_1616                   ;
 62                            151.88            0.04 Fac_1616                   ;
 63                               154            0.01 Fac_1616                   ;
 64                                64           0.097 Fac_11                     ;
 65                               152            0.01 Fac_11                     ;
 66                               155               0 Fac_11                     ;
 67                               156            0.01 Fac_11                     ;
 68                               156               0 Fac_11                     ;
 69                               155            0.07 Fac_1616                   ;
 70                               152               0 Fac_11                     ;
 71                               150            0.02 Fac_1616                   ;
 72                               153            0.02 Fac_1616                   ;
 73                               150            0.09 Fac_1616                   ;
 74                            145.97            0.03 Fac_44                     ;
 75                                64           0.005 Fac_11                     ;
 76                               147            0.02 Fac_11                     ;
 77                               147            0.02 Fac_1616                   ;
 78                               140            0.03 Fac_1616                   ;
 79                               130             0.1 Fac_1616                   ;
 80                            125.94            0.06 Fac_1616                   ;
 81                               129            0.02 Fac_1616                   ;
 82                               121               0 Fac_11                     ;
 83                             126.2            0.01 Fac_44                     ;
 84                               132            0.02 Fac_1616                   ;
 85                               102            0.01 Fac_1616                   ;
 86                                64           0.109 Fac_11                     ;
 87                               113            0.04 Fac_1616                   ;
 88                                98               0 Fac_11                     ;
 89                                98            0.02 Fac_44                     ;
 90                             96.25            0.02 Fac_11                     ;
 91                                98               0 Fac_11                     ;
 92                                98               0 Fac_11                     ;
 93                                98               0 Fac_11                     ;
 94                                98            0.02 Fac_1616                   ;
 95                               105            0.01 Fac_1616                   ;
 96                               110               0 Fac_11                     ;
 97                                63           0.297 Fac_11                     ;
 98                               115            0.02 Fac_1616                   ;
 99                               110            0.07 Fac_1616                   ;
 100                              115               0 Fac_11                     ;
 101                              112            0.02 Fac_11                     ;
 102                           111.11            0.04 Fac_1616                   ;
 103                               98            0.01 Fac_1616                   ;
 104                              184               0 Fac_11                     ;
 105                              177               0 Fac_11                     ;
 106                              176               0 Fac_11                     ;
 107                              152            0.02 Fac_11                     ;
 108                           150.85            0.01 Fac_11                     ;
 109                               63           0.007 Fac_11                     ;
 110                              151            0.01 Fac_1313                   ;
 111                           136.05            0.01 Fac_1313                   ;
 112                              136            0.05 Fac_11                     ;
 113                              134            0.04 Fac_11                     ;
 114                              134            0.11 Fac_11                     ;
 115                              135            0.01 Fac_1313                   ;
 116                              135            0.02 Fac_11                     ;
 117                              140            0.01 Fac_11                     ;
 118                              133            0.02 Fac_11                     ;
 119                              132            0.01 Fac_1313                   ;
 120                               50           0.276 Fac_11                     ;
 121                              131            0.01 Fac_11                     ;
 122                              131               0 Fac_11                     ;
 123                              130            0.03 Fac_11                     ;
 124                              130            0.04 Fac_1313                   ;
 125                           132.14            0.01 Fac_1313                   ;
 126                              134            0.01 Fac_11                     ;
 127                              135            0.03 Fac_11                     ;
 128                              144               0 Fac_11                     ;
 129                              144               0 Fac_11                     ;
 130                              143            0.01 Fac_11                     ;
 131                               50            0.01 Fac_88                     ;
 132                           138.36            0.01 Fac_11                     ;
 133                           143.93            0.02 Fac_11                     ;
 134                              148            0.02 Fac_11                     ;
 135                              147            0.06 Fac_11                     ;
 136                              140            0.03 Fac_1313                   ;
 137                              140            0.01 Fac_11                     ;
 138                           143.17            0.04 Fac_11                     ;
 139                              144            0.05 Fac_11                     ;
 140                              147            0.03 Fac_11                     ;
 141                              147               0 Fac_11                     ;
 142                               50           0.006 Fac_11                     ;
 143                           135.25            0.05 Fac_11                     ;
 144                              148            0.04 Fac_11                     ;
 145                              149            0.01 Fac_1313                   ;
 146                              148            0.02 Fac_1313                   ;
 147                              127            0.01 Fac_1313                   ;
 148                              127               0 Fac_11                     ;
 149                              126            0.02 Fac_1313                   ;
 150                              127            0.04 Fac_11                     ;
 151                              135            0.06 Fac_11                     ;
 152                           124.41            0.04 Fac_11                     ;
 153                               50            0.02 Fac_88                     ;
 154                              136            0.02 Fac_44                     ;
 155                              125            0.01 Fac_11                     ;
 156                              125               0 Fac_11                     ;
 157                              126            0.02 Fac_11                     ;
 158                              127            0.01 Fac_11                     ;
 159                              126               0 Fac_11                     ;
 160                              128            0.04 Fac_11                     ;
 161                              133            0.05 Fac_11                     ;
 162                              136            0.04 Fac_11                     ;
 163                              133            0.02 Fac_11                     ;
 164                               50           0.116 Fac_11                     ;
 165                              126            0.01 Fac_1313                   ;
 166                              126            0.02 Fac_11                     ;
 167                              130            0.04 Fac_11                     ;
 168                              128            0.01 Fac_1313                   ;
 169                              129            0.01 Fac_1313                   ;
 170                              148            0.05 Fac_11                     ;
 171                            139.5            0.06 Fac_11                     ;
 172                              132            0.06 Fac_11                     ;
 173                              126            0.03 Fac_11                     ;
 174                              115            0.01 Fac_1313                   ;
 175                               50           0.006 Fac_11                     ;
 176                              109            0.04 Fac_11                     ;
 177                              127               0 Fac_55                     ;
 178                              137            0.04 Fac_1313                   ;
 179                              136               0 Fac_11                     ;
 180                              135            0.03 Fac_11                     ;
 181                           130.29            0.02 Fac_1313                   ;
 182                              126            0.05 Fac_11                     ;
 183                              120            0.04 Fac_44                     ;
 184                              120               0 Fac_11                     ;
 185                              116            0.02 Fac_1313                   ;
 186                           112.18           0.006 Fac_11                     ;
 187                              122            0.01 Fac_1313                   ;
 188                              125            0.03 Fac_11                     ;
 189                              121            0.11 Fac_11                     ;
 190                              108               0 Fac_11                     ;
 191                              109            0.02 Fac_11                     ;
 192                           104.75            0.02 Fac_11                     ;
 193                              134            0.02 Fac_11                     ;
 194                              135            0.01 Fac_11                     ;
 195                              131            0.01 Fac_11                     ;
 196                              134               0 Fac_11                     ;
 197                              115           0.164 Fac_11                     ;
 198                              137            0.01 Fac_1313                   ;
 199                              134            0.03 Fac_11                     ;
 200                              136            0.02 Fac_1313                   ;
 201                              134            0.02 Fac_11                     ;
 202                              134               0 Fac_11                     ;
 203                              136            0.06 Fac_11                     ;
 204                              136            0.02 Fac_11                     ;
 205                              135            0.01 Fac_1313                   ;
 206                           134.99            0.03 Fac_11                     ;
 207                              135            0.04 Fac_11                     ;
 208                           137.22           0.322 Fac_11                     ;
 209                              135            0.03 Fac_11                     ;
 210                              130            0.03 Fac_1313                   ;
 211                              125            0.02 Fac_11                     ;
 212                              125            0.02 Fac_11                     ;
 213                              124            0.03 Fac_11                     ;
 214                              115            0.01 Fac_11                     ;
 215                              137            0.04 Fac_11                     ;
 216                              137            0.02 Fac_11                     ;
 217                              136            0.01 Fac_1313                   ;
 218                              134            0.05 Fac_11                     ;
 219                           155.65           0.359 Fac_11                     ;
 220                              137            0.06 Fac_11                     ;
 221                              131            0.02 Fac_11                     ;
 222                              140            0.01 Fac_11                     ;
 223                              138            0.02 Fac_11                     ;
 224                           142.04            0.05 Fac_11                     ;
 225                              128            0.01 Fac_1313                   ;
 226                              129            0.02 Fac_11                     ;
 227                              115               0 Fac_11                     ;
 228                           114.87            0.02 Fac_11                     ;
 229                              119            0.02 Fac_11                     ;
 230                              175           0.196 Fac_11                     ;
 231                              112            0.01 Fac_1313                   ;
 232                              107               0 Fac_11                     ;
 233                           102.81            0.05 Fac_11                     ;
 234                              123            0.08 Fac_11                     ;
 235                           120.52            0.02 Fac_11                     ;
 236                              117            0.04 Fac_11                     ;
 237                              116            0.01 Fac_11                     ;
 238                              112            0.06 Fac_11                     ;
 239                              103            0.05 Fac_11                     ;
 240                              103            0.04 Fac_11                     ;
 241                              175           0.002 Fac_11                     ;
 242                              102            0.01 Fac_1313                   ;
 243                              107               0 Fac_11                     ;
 244                              107               0 Fac_11                     ;
 245                              102            0.02 Fac_11                     ;
 246                              100            0.01 Fac_1313                   ;
 247                              101            0.02 Fac_11                     ;
 248                              100            0.01 Fac_1313                   ;
 249                              101            0.01 Fac_11                     ;
 250                              103               0 Fac_11                     ;
 251                              175           0.001 Fac_11                     ;
 252                              101               0 Fac_11                     ;
 253                              104               0 Fac_11                     ;
 254                              104               0 Fac_11                     ;
 255                              109            0.03 Fac_11                     ;
 256                           115.04            0.07 Fac_11                     ;
 257                              140               0 Fac_11                     ;
 258                              140               0 Fac_11                     ;
 259                            140.3            0.01 Fac_1313                   ;
 260                              175               0 Fac_11                     ;
 261                              143            0.01 Fac_11                     ;
 262                              143               0 Fac_11                     ;
 263                           183.33               0 Fac_11                     ;
 264                              184               0 Fac_11                     ;
 265                           183.51               0 Fac_11                     ;
 266                           183.51               0 Fac_11                     ;
 267                              184            0.02 Fac_11                     ;
 268                              202            0.04 Fac_11                     ;
 269                              210            0.02 Fac_11                     ;
 270                              210               0 Fac_11                     ;
 271                              214            0.01 Fac_11                     ;
 272                           213.29            0.02 Fac_11                     ;
 273                              175               0 Fac_11                     ;
 274                              212            0.01 Fac_11                     ;
 275                              213            0.09 Fac_88                     ;
 276                              217            0.01 Fac_11                     ;
 277                              217            0.01 Fac_11                     ;
 278                              220            0.01 Fac_11                     ;
 279                              220            0.01 Fac_11                     ;
 280                              222            0.01 Fac_11                     ;
 281                              223            0.01 Fac_88                     ;
 282                              225            0.01 Fac_11                     ;
 283                              224            0.01 Fac_11                     ;
 284                              186               0 Fac_11                     ;
 285                              225               0 Fac_11                     ;
 286                           224.57            0.02 Fac_88                     ;
 287                              225            0.04 Fac_11                     ;
 288                           218.37            0.04 Fac_11                     ;
 289                              219               0 Fac_11                     ;
 290                           218.74               0 Fac_11                     ;
 291                           218.74               0 Fac_11                     ;
 292                              219               0 Fac_11                     ;
 293                           218.74               0 Fac_11                     ;
 294                              219               0 Fac_11                     ;
 295                           218.74               0 Fac_11                     ;
 296                              219               0 Fac_11                     ;
 297                              219               0 Fac_11                     ;
 298                              186               0 Fac_11                     ;
 299                              219               0 Fac_11                     ;
 300                              237               0 Fac_11                     ;
 301                              235            0.02 Fac_2020                   ;
 302                           228.53            0.01 Fac_44                     ;
 303                              235               0 Fac_11                     ;
 304                           233.06            0.05 Fac_2020                   ;
 305                              186               0 Fac_11                     ;
 306                              228            0.06 Fac_2020                   ;
 307                              228               0 Fac_11                     ;
 308                              227            0.03 Fac_2020                   ;
 309                              223               0 Fac_11                     ;
 310                              225            0.03 Fac_44                     ;
 311                              222            0.01 Fac_11                     ;
 312                              222               0 Fac_11                     ;
 313                              222               0 Fac_11                     ;
 314                              222               0 Fac_11                     ;
 315                              222               0 Fac_11                     ;
 317                            221.5               0 Fac_11                     ;
 318                              183               0 Fac_11                     ;
 319                              222               0 Fac_11                     ;
 320                              222               0 Fac_11                     ;
 321                              222               0 Fac_11                     ;
 322                              222               0 Fac_11                     ;
 323                              222               0 Fac_11                     ;
 324                           221.03               0 Fac_11                     ;
 325                              222               0 Fac_11                     ;
 326                              222               0 Fac_11                     ;
 327                              218               0 Fac_11                     ;
 328                              205               0 Fac_11                     ;
 329                              203               0 Fac_11                     ;
 330                              203               0 Fac_11                     ;
 331                              186               0 Fac_11                     ;
 332                              203            0.02 Fac_2222                   ;
 333                              203            0.03 Fac_2222                   ;
 334                              211            0.07 Fac_2222                   ;
 335                              213            0.05 Fac_2222                   ;
 336                              202               0 Fac_11                     ;
 337                           203.85            0.03 Fac_2222                   ;
 338                              206            0.01 Fac_2222                   ;
 339                              206            0.02 Fac_2222                   ;
 340                              209            0.04 Fac_2222                   ;
 341                              210            0.03 Fac_2222                   ;
 342                           185.78               0 Fac_11                     ;
 343                              210            0.02 Fac_2222                   ;
 344                              211            0.01 Fac_2222                   ;
 345                           210.98               0 Fac_11                     ;
 346                              208            0.02 Fac_2222                   ;
 347                              206            0.09 Fac_2222                   ;
 348                              200            0.06 Fac_2222                   ;
 349                              205            0.09 Fac_2222                   ;
 350                           202.45            0.03 Fac_2222                   ;
 351                              195            0.01 Fac_2222                   ;
 352                              198            0.03 Fac_2222                   ;
 353                           185.78               0 Fac_11                     ;
 354                              198               0 Fac_11                     ;
 355                              197            0.02 Fac_2222                   ;
 356                              186               0 Fac_11                     ;
 357                           185.46               0 Fac_11                     ;